resultados/_temp_alt4_1p00/LineSummary.csv
line,maxCurrentA,normAmps,maxLoadingPct,meanLoadingPct,overloadHours
rbt_1607347,91.57659530849597,124.95,73.29059248379028,25.17500512674094,0
sbt_7584,91.5766056768328,163.8,55.9075736732801,19.20401190574886,0
sbt_22840,91.57660092632538,163.8,55.90757077309242,19.20401186372724,0
rbt_630758,31.28011181422056,76.65,40.80901737015076,17.011480861393736,0
rbt_637576,24.675537334039156,61.95,39.831375841871115,14.34274418508417,0
rbt_606147,25.452917125195924,76.65,33.20667596242129,12.161974490778901,0
rbt_632607,41.048606084976086,124.95,32.85202567825217,15.477930956757406,0
rbt_637918,17.63645689012631,61.95,28.468856965498485,10.986770497588573,0
rbt_1130761,25.472630774755686,90.3,28.208893438267644,13.280495208295255,0
rbt_1607350,21.7246368296865,90.3,24.058291062775748,8.580205806258965,0
rbt_605836,21.61480626986891,90.3,23.936662535845972,11.283374697358456,0
rbt_637360,14.743193979487685,61.95,23.798537497155262,11.18139480579503,0
rbt_606126,13.496058327504851,61.95,21.785404887013478,7.687899160605219,0
rbt_1633671,13.426256729247907,61.95,21.672730797817444,9.721058039627009,0
rbt_626476,12.741360539733764,61.95,20.56716794145886,9.677044666745072,0
smt_29422,33.63687196594862,163.8,20.535330870542502,19.844316848349596,0
smt_17184,33.54144906770006,163.8,20.477075132906016,19.782472497172265,0
smt_19119,33.53981335340171,163.8,20.47607652832827,19.781250422036997,0
rbt_3405844,18.40256128026255,90.3,20.379359114354983,6.998910920098723,0
smt_24512,31.788693081678524,163.8,19.40701653338127,19.13952442502492,0
smt_19115,31.788639639303526,163.8,19.406983906778706,19.139492161357804,0
smt_29473,31.787149811778875,163.8,19.406074366165367,19.13859272747235,0
smt_29474,31.785254810313045,163.8,19.40491746661358,19.13744868408767,0
smt_6092,31.783362303609405,163.8,19.40376209011563,19.136306147747437,0
smt_19063,31.781673158537014,163.8,19.402730866017713,19.13528638483709,0
smt_6227,31.779725112451406,163.8,19.401541582693163,19.134110320258248,0
smt_6144,31.777761516412724,163.8,19.40034280611277,19.1329248689597,0
smt_6176,31.775731151785596,163.8,19.399103267268373,19.131699109489443,0
smt_6719,31.77381777136731,163.8,19.39793514735489,19.13054397593159,0
smt_6062,31.771771075769884,163.8,19.396685638443152,19.12930835924069,0
smt_6066,31.769957299907873,163.8,19.395578327172082,19.128213360108433,0
smt_19014,31.768316094493624,163.8,19.394576370264726,19.127222544609584,0
smt_19011,31.766353642877263,163.8,19.39337829235486,19.126037789755795,0
smt_29475,31.764372730859,163.8,19.392168944358364,19.124841891057084,0
smt_6594,31.762646148273312,163.8,19.39111486463572,19.12379953464117,0
smt_29476,31.760644849120432,163.8,19.38989307028109,19.122591329740438,0
smt_19061,31.758661864054147,163.8,19.388682456687512,19.121394182193605,0
smt_6474,31.757039253650554,163.8,19.387691852045513,19.120414597024006,0
smt_37840,31.755379679931334,163.8,19.38667868127676,19.1194126974047,0
rbt_606143,14.834652385397332,76.65,19.35375392745901,6.793930957285757,0
smt_13371,31.608539080696044,163.8,19.29703240579734,19.03809773105644,0
smt_21221,31.606761067416723,163.8,19.295946927604835,19.03701700805326,0
smt_13441,31.605001673016886,163.8,19.294872816249626,19.03594760241007,0
smt_857,31.603799557865365,163.8,19.29413892421573,19.035216925897178,0
smt_21217,31.602561131233333,163.8,19.29338286400081,19.034464178385488,0
smt_26396,31.60114930820975,163.8,19.292520945182996,19.033606036010287,0
smt_39969,31.601076613145867,163.8,19.292476564802115,19.033561849389404,0
smt_13847,31.59990574385338,163.8,19.291761748384236,19.03285016538042,0
smt_14513,31.598284820956675,163.8,19.29077217396622,19.03186492770991,0
smt_13787,31.59694284699741,163.8,19.289952898044817,19.031049242438744,0
smt_21165,31.59499110585876,163.8,19.28876135888813,19.029862925783956,0
smt_14288,31.593442139258606,163.8,19.287815713833094,19.02268179159492,0
smt_26394,31.593020143788383,163.8,19.28755808534089,19.02866492666459,0
smt_20815,31.591697490035237,163.8,19.286750604417115,19.021621371524866,0
smt_14041,31.591204758804732,163.8,19.28644979170008,19.02756149151747,0
smt_26393,31.58972243573258,163.8,19.28554483255957,19.026660499749713,0
smt_13284,31.588320862480696,163.8,19.284689171233634,19.025808589977732,0
smt_21157,31.587423715370033,163.8,19.284141462374865,19.019023718477733,0
smt_21164,31.58652397309492,163.8,19.283592169166617,19.02471639787193,0
smt_15145,31.585667973764938,163.8,19.283069581053073,19.017956557761693,0
smt_13919,31.58462298061596,163.8,19.282431612097657,19.023560929842915,0
smt_15288,31.58348359867397,163.8,19.281736018726477,19.01662886908436,0
smt_20813,31.58262935823089,163.8,19.28121450441446,19.022349159614745,0
smt_26388,31.58165867764585,163.8,19.280621903324693,19.01551966125155,0
smt_20814,31.581297123112027,163.8,19.280401174061065,19.02153939622168,0
smt_20997,31.579846651568342,163.8,19.279515660298134,19.014418291612447,0
smt_21162,31.579435828439255,163.8,19.279264852527017,19.020408058548067,0
smt_15035,31.57813114841738,163.8,19.278468344577153,19.01337559005852,0
smt_26478,31.575567722343884,163.8,19.27690337139431,19.041284297704355,0
smt_20816,31.57554228908039,163.8,19.27688784437142,19.011802053808264,0
smt_30311,31.57383262329346,163.8,19.275844092364746,19.040232283200897,0
smt_14255,31.573689618116003,163.8,19.275756787616604,19.010675981215954,0
smt_15189,31.572338489621643,163.8,19.274931922845933,19.009854751652252,0
smt_14452,31.57172897587047,163.8,19.274559814328736,19.038956814874894,0
smt_14349,31.570875649604062,163.8,19.274038858122136,19.008965622974472,0
smt_22508,31.57002492088106,163.8,19.273519487717376,19.03792362622929,0
smt_14630,31.56906386501957,163.8,19.27293276252721,19.007864402661998,0
smt_14113,31.567996308819644,163.8,19.27228101881541,19.03669365675105,0
smt_20817,31.567668520663812,163.8,19.272080903946158,19.007016299125677,0
smt_14608,31.56619566838251,163.8,19.271181726729246,19.006121085750795,0
smt_14544,31.56569798401096,163.8,19.27087789011658,19.035300160203118,0
smt_20862,31.563830905677023,163.8,19.26973803765386,19.004683761439573,0
smt_22453,31.563605569027427,163.8,19.269600469491714,19.034031511151806,0
smt_14261,31.562658098465427,163.8,19.26902203813518,19.00397091883665,0
smt_14754,31.56177700116537,163.8,19.268484127695583,19.034606410508754,0
smt_26474,31.561512887949025,163.8,19.268322886415763,19.032762703047563,0
smt_14274,31.560630655836206,163.8,19.267784283172283,19.002738621761353,0
smt_21229,31.559772501260753,163.8,19.267260379280067,19.031707495397068,0
smt_14780,31.55972067358469,163.8,19.26722873845219,19.033359529540643,0
smt_26385,31.559011428549454,163.8,19.266795743925183,19.001754441770483,0
smt_14729,31.55780124705907,163.8,19.266056927386487,19.030512313171386,0
smt_26472,31.557656304141553,163.8,19.265968439646855,19.032107774511616,0
smt_14298,31.557458642618958,163.8,19.265847767166637,19.000810645707176,0
smt_14732,31.555872500750883,163.8,19.26487942658784,18.999846575997946,0
smt_15243,31.555589772925313,163.8,19.264706821077723,19.030854710930154,0
smt_21153,31.55424145522496,163.8,19.26388367229851,18.998855213806582,0
smt_15568,31.554165961971773,163.8,19.26383758362135,19.030494455987153,0
smt_15581,31.552696049826853,163.8,19.262940201359495,19.02960303905155,0
smt_36207,31.552634381093917,163.8,19.262902552560387,18.997878421961758,0
smt_23196,31.55118048226835,163.8,19.262014946439773,19.02868393591878,0
smt_14872,31.55072167349671,163.8,19.261734843404586,18.99671586424998,0
smt_15622,31.549781626409132,163.8,19.26116094408372,19.0278356126776,0
smt_856,31.54847787125503,163.8,19.260365000766196,19.027044963307237,0
smt_15028,31.547952913183117,163.8,19.260044513542805,18.98124791160021,0
smt_14970,31.546581652031286,163.8,19.259207357772457,18.97526975994875,0
smt_16038,31.546134627113087,163.8,19.258934448786988,19.025623928404677,0
smt_13747,31.54498045370411,163.8,19.258229825216183,18.97429630064631,0
smt_20865,31.543433155605232,163.8,19.257285198782192,18.973355610930465,0
smt_23147,31.542269123351847,163.8,19.256574556380855,19.023347728215175,0
smt_14193,31.54176028481587,163.8,19.256263910143996,18.97233857912535,0
smt_14225,31.540226164894467,163.8,19.2553273289954,18.971405902323845,0
smt_21108,31.538467765898815,163.8,19.254253825335052,18.97033687453898,0
smt_20866,31.536816454747036,163.8,19.253245698868763,18.96933295187607,0
smt_36206,31.535311638981927,163.8,19.252327007925473,18.96841809216843,0
smt_13717,31.53516034315971,163.8,19.252234641733644,19.018330249209537,0
smt_20807,31.53380285652937,163.8,19.251405895317074,19.017507295686396,0
smt_13702,31.533598762130413,163.8,19.251281295561913,18.967376741182417,0
smt_20867,31.532156850361034,163.8,19.250401007546415,18.966500124864748,0
smt_23095,31.53209986438944,163.8,19.25036621757597,19.016474885364985,0
smt_20808,31.531292758623806,163.8,19.24987347901331,19.015985591131994,0
smt_13866,31.530697310592057,163.8,19.249509957626408,18.965612791946423,0
smt_26469,31.52969350989366,163.8,19.248897136687216,19.0150160737377,0
smt_21107,31.52894107539233,163.8,19.248437774964792,18.964545082323024,0
smt_13955,31.528167780906927,163.8,19.247965678209354,19.014091126624272,0
smt_26355,31.52676548689847,163.8,19.247109576861092,18.963222425923515,0
smt_14437,31.52642382143117,163.8,19.24690098988472,19.01303388115908,0
smt_20868,31.52514683353594,163.8,19.24612138799508,18.962238360593698,0
smt_27620,31.525062876953584,163.8,19.246070132450292,18.961167675883928,0
smt_13280,31.524704300632166,163.8,19.24585122138716,19.01199145142957,0
smt_23009,31.523642384327065,163.8,19.245202920834593,18.96132372634593,0
smt_20869,31.523120569820406,163.8,19.24488435275971,18.959986821821104,0
smt_21226,31.523000729625355,163.8,19.244811190247468,19.010958691120322,0
smt_13891,31.521518774675716,163.8,19.24390645584598,18.9590129873763,0
smt_13930,31.52121322435096,163.8,19.243719917186176,19.009875047331995,0
smt_21104,31.519840792056446,163.8,19.242882046432506,18.957992834073334,0
smt_21225,31.518879885892325,163.8,19.242295412632675,19.008460502042517,0
smt_13932,31.517579335690524,163.8,19.241501425940488,18.956617950295975,0
smt_13546,31.516533039105447,163.8,19.240862661236534,19.007037767891003,0
smt_14054,31.51553505838569,163.8,19.240253393397857,18.955375104199714,0
smt_13752,31.51509070419454,163.8,19.239982114892882,18.999013913113533,0
smt_14823,31.515054037310957,163.8,19.239959729738068,18.99899168028276,0
smt_26351,31.513498948277856,163.8,19.239010346933977,18.95413722408841,0
smt_23041,31.513276609805388,163.8,19.238874609160796,18.99791392541963,0
smt_14797,31.511521031013405,163.8,19.23780282723651,18.99684941897903,0
smt_14864,31.511483629142635,163.8,19.23777999337157,18.952911984658176,0
smt_21052,31.509816051656173,163.8,19.236761936298027,18.95189815985528,0
smt_26430,31.5095598005185,163.8,19.236605494822037,18.99602423286128,0
smt_26348,31.508169875507193,163.8,19.235756944754083,18.95089734655067,0
smt_26429,31.507812852161926,163.8,19.235538981783836,18.994964930697403,0
smt_14369,31.5066671407642,163.8,19.23483952427607,18.94998374059372,0
smt_20810,31.506055654606268,163.8,19.234466211603337,18.993899413983893,0
smt_20870,31.505018030138935,163.8,19.23383274123256,18.94898114402622,0
smt_26425,31.50428594794952,163.8,19.233385804608986,18.99282631242346,0
smt_21053,31.503601999886993,163.8,19.23296825389926,18.948120251748602,0
smt_14845,31.502187054660755,163.8,19.232104428974818,18.991553601563073,0
smt_26347,31.501831051256747,163.8,19.23188708867933,18.94704358309525,0
smt_14536,31.50012744900454,163.8,19.23084703846431,18.94600785884299,0
smt_21220,31.500077654538664,163.8,19.230816638912493,18.990274520082888,0
smt_14549,31.498070376523174,163.8,19.22959119445859,18.94475723893949,0
smt_23225,31.498042837024972,163.8,19.229574381578125,18.98904066385491,0
smt_21056,31.496561313129178,163.8,19.22866991033527,18.943839787600563,0
smt_14674,31.49609756574313,163.8,19.22838679227297,18.986745606337443,0
smt_15181,31.495206340655745,163.8,19.22784269881303,18.943016017705393,0
smt_15154,31.49408172107464,163.8,19.227156117872184,18.98552325812915,0
smt_21055,31.49385354162213,163.8,19.227016814177123,18.94219356949473,0
smt_20871,31.49241447396482,163.8,19.226138262493784,18.948706028978,0
smt_20812,31.492400739400455,163.8,19.226129877533854,18.984503961246773,0
smt_14721,31.49106601670888,163.8,19.225315028515798,18.947886170051508,0
smt_26427,31.49062021308689,163.8,19.22504286513241,18.98342430377274,0
smt_14748,31.489417679648962,163.8,19.22430871773441,18.946883985311107,0
smt_23277,31.48884557977351,163.8,19.223959450411176,18.98234821994229,0
smt_26346,31.487795512947006,163.8,19.22331838397253,18.94589771252973,0
smt_14301,31.487163553671273,163.8,19.222932572448883,18.98132829058608,0
smt_14761,31.486002560506396,163.8,19.22222378541294,18.94480760306997,0
smt_21222,31.485377259565322,163.8,19.221842038806667,18.980245136647053,0
smt_14786,31.48422522081712,163.8,19.22113871844757,18.94372698671447,0
smt_21100,31.482475789900914,163.8,19.220070689805198,18.94266333928564,0
smt_21054,31.480738296398215,163.8,19.21900994896106,18.941606950329483,0
smt_21101,31.35594670533738,163.8,19.142824606433077,18.920262213571842,0
smt_14960,31.353524080629843,163.8,19.14134559257011,18.918788124427614,0
smt_21103,31.35205595332838,163.8,19.140449299956273,18.91789481623719,0
smt_14563,31.35029536739235,163.8,19.13937446116749,18.916823556292382,0
smt_26349,31.348490376328456,163.8,19.138272513021036,18.915725277201393,0
smt_26350,31.347043929378728,163.8,19.13738945627517,18.914845160655492,0
smt_17100,31.345123450748524,163.8,19.136217002898974,18.913676610978396,0
smt_15080,31.3427619591805,163.8,19.134775310855005,18.91223971907128,0
smt_14503,31.34204411955155,163.8,19.134337069323287,18.908009468556507,0
smt_20875,31.340375034067275,163.8,19.13331809161616,18.910787351533934,0
smt_26354,31.3402509813313,163.8,19.133242357345114,18.906918405277196,0
smt_14517,31.339108753926222,163.8,19.132545026816985,18.910016860550204,0
smt_27622,31.33809686274378,163.8,19.131927266632342,18.90605176015452,0
smt_14778,31.336814216071552,163.8,19.131144210055893,18.908620707536297,0
smt_21109,31.336699948284167,163.8,19.13107444950193,18.90520178699248,0
smt_21110,31.33536248614951,163.8,19.130257928052202,18.904387988306905,0
smt_14909,31.334782642354703,163.8,19.129903933061478,18.907384559757215,0
smt_14066,31.333610203584012,163.8,19.129188158476197,18.903321785753974,0
smt_21111,31.331569689699066,163.8,19.1279424235037,18.902080204282157,0
smt_14146,31.329598538044582,163.8,19.12673903421525,18.90088082708271,0
smt_26356,31.327701694877035,163.8,19.12558101030344,18.89972666369886,0
smt_14607,31.32578477547357,163.8,19.124410729837344,18.898560284350367,0
smt_15188,31.32411116348035,163.8,19.12338898869374,18.897541948907513,0
smt_14159,31.322710998875472,163.8,19.12253418734766,18.896689996687357,0
smt_14181,31.32128574858158,163.8,19.121664071173125,18.895822780537795,0
smt_14620,31.319547152322443,163.8,19.120602657095507,18.8947649038486,0
smt_20876,31.317559668127014,163.8,19.119389296780838,18.89355558702744,0
smt_26384,31.315497366262573,163.8,19.11813026023356,18.89230074583907,0
smt_14740,31.31302681649082,163.8,19.116621988089634,18.890797499146412,0
smt_36560,31.16220565350403,163.8,19.024545576009785,18.831134762886077,0
smt_14427,31.16037549098971,163.8,19.023428260677477,18.830044319835284,0
smt_36562,31.159011188185218,163.8,19.022595352982428,18.829213854750922,0
smt_36563,31.158967826945567,163.8,19.022568880919145,18.829187460206047,0
smt_36561,31.15893931305625,163.8,19.022551473172314,18.829170103569332,0
smt_26391,31.158126394510653,163.8,19.022055185903938,18.840337949834094,0
smt_13545,31.15802252404814,163.8,19.021991772923162,18.825332560697213,0
smt_20926,31.157339208769958,163.8,19.021574608528667,18.82819610484179,0
smt_21161,31.15643186004949,163.8,19.021020671580885,18.839306414346,0
smt_21154,31.15636689916328,163.8,19.020981012920192,18.824324773931103,0
smt_14247,31.15530150527438,163.8,19.020330589300595,18.826955735964926,0
smt_14907,31.154510292932635,163.8,19.019847553682926,18.83813667493028,0
smt_16842,31.15436134095574,163.8,19.019756618410096,18.82310398185277,0
smt_14040,31.15309735965564,163.8,19.018984957054723,18.82561405319367,0
smt_26390,31.152789644806383,163.8,19.018797096951392,18.837089243966158,0
smt_16817,31.15182570541559,163.8,19.018208611364827,18.821560530549675,0
smt_14065,31.15097901272528,163.8,19.017691704960487,18.83598703647255,0
smt_14587,31.15013865664689,163.8,19.017178667061593,18.820533618137805,0
smt_23120,31.149856398501562,163.8,19.017006348291552,18.829059807914003,0
smt_27624,31.149047133517538,163.8,19.016512291524748,18.83481102129282,0
smt_14588,31.14800781064377,163.8,19.0158777842758,18.819236565585705,0
smt_15289,31.147987931844423,163.8,19.015865648256668,18.827922439368734,0
smt_23173,31.147364592226868,163.8,19.0154850990396,18.83378678895295,0
smt_14163,31.146640973394906,163.8,19.01504332930092,18.827102522403383,0
smt_16855,31.14580480840302,163.8,19.014532850062892,18.81789559230717,0
smt_20927,31.145226377656822,163.8,19.014179717739207,18.82624143383798,0
smt_26392,31.143895074400362,163.8,19.013366956288376,18.82543104716865,0
smt_26387,31.1437014479871,163.8,19.01324874724487,18.81661527224435,0
smt_27623,31.142190028211445,163.8,19.01232602454911,18.81569526829629,0
smt_14735,31.142184154907923,163.8,19.012322438893726,18.82438958224,0
smt_26389,31.14077083699958,163.8,19.01145960744785,18.81483140445621,0
smt_3613,30.968620363826545,163.8,18.90636163847774,18.789144136826916,0
smt_14937,30.966123663186902,163.8,18.904837401213005,18.787626283923355,0
...
rbt_3435739,13.031607637868582,76.65,17.001445059189276,7.7656444688694535,0
rbt_635862,10.387403547383302,61.95,16.76739878512236,5.735718649308907,0
rbt_1627323,12.553458719187153,76.65,16.37763694610196,7.706327646829373,0
sbt_34378,20.594633054305486,128.1,16.076996919832542,7.8890197594861915,0
sbt_34379,20.530318856310174,128.1,16.026790676276484,7.77575700609441,0
rbt_605816,9.891014627242146,61.95,15.966125306282722,5.945875130938291,0
rbt_637397,9.822920067707981,61.95,15.856206727535078,7.454617052484558,0
sbt_24791,25.452938579445863,163.8,15.53903454178624,5.691180945952404,0
sbt_3174,25.452929639645706,163.8,15.539029084032787,5.691182628897345,0
smt_37838,31.829000558077087,216.3,14.715210613997728,14.533250087494634,0
smt_37842,31.827866671891385,216.3,14.714686394771793,14.532730512923441,0
smt_37843,31.827161153006475,216.3,14.714360218680756,14.532407226835494,0
smt_38001,31.825796608727394,216.3,14.713729361408873,14.531781959716787,0
smt_38002,31.825741772426348,216.3,14.713704009443527,14.531756832013798,0
smt_38000,31.825714810847394,216.3,14.713691544543408,14.531744477855176,0
smt_37845,31.82446260585226,216.3,14.713112624064845,14.531170687360067,0
smt_37846,31.82298485492279,216.3,14.712429428998053,14.530493546591444,0
smt_37847,31.821599311656808,216.3,14.711788863456684,14.529858657926132,0
smt_37831,31.82125433355865,216.3,14.71162937288888,14.522081929065523,0
smt_37848,31.82058474319826,216.3,14.711319807303862,14.529393758895532,0
smt_37858,31.820554359064648,216.3,14.711305760085367,14.52176090586706,0
smt_37849,31.819141982882886,216.3,14.710652789127549,14.528732652576084,0
smt_37859,31.819083906175965,216.3,14.710625939055,14.521086525401996,0
smt_37860,31.81802097661224,216.3,14.710134524554894,14.520599044087865,0
smt_37850,31.81769465795562,216.3,14.709983660635977,14.528069455035416,0
smt_37861,31.816595084730757,216.3,14.709475305007283,14.519945101246089,0
smt_37851,31.81629808655506,216.3,14.70933799655805,14.527429514229851,0
smt_37862,31.815243604979777,216.3,14.708850487739147,14.519325285838192,0
smt_37852,31.814896616342896,216.3,14.70869006765737,14.526787329002913,0
smt_37863,31.814127773558404,216.3,14.708334615607214,14.51881354381915,0
smt_37853,31.813550014355513,216.3,14.70806750548105,14.526170285908663,0
smt_37864,31.813452459771952,216.3,14.708022403962993,14.51850383195822,0
smt_37923,31.812776605703082,216.3,14.70770994253494,14.518193872430906,0
smt_37854,31.812121157777767,216.3,14.70740691529254,14.525515552307512,0
smt_37924,31.81135060545434,216.3,14.707050672886886,14.517539881993988,0
smt_37855,31.810729923863466,216.3,14.7067637188458,14.524878058534798,0
smt_37925,31.8099048171921,216.3,14.706382254827599,14.516876817041242,0
smt_37856,31.8092190066003,216.3,14.706065190291401,14.524185723606692,0
smt_37932,31.79095455030802,216.3,14.697621151321322,14.506964194071031,0
smt_37933,31.789590528311397,216.3,14.696990535511508,14.50633859646613,0
smt_37934,31.788227762853023,216.3,14.69636050062553,14.505713575726134,0
smt_37935,31.786873439397187,216.3,14.695734368653346,14.505092427357459,0
smt_37936,31.78563483060835,216.3,14.695161733984442,14.504524350935993,0
smt_37937,31.784266266080785,216.3,14.694529018067861,14.503896672008345,0
smt_37938,31.782899128992415,216.3,14.693896962086184,14.503269648329749,0
smt_37939,31.78150894865145,216.3,14.693254252728364,14.502632056617403,0
smt_37940,31.780135595333117,216.3,14.692619322853961,14.502002182967503,0
smt_37941,31.77879139639567,216.3,14.691997871657728,14.501385681157439,0
smt_37942,31.777475674251967,216.3,14.691389585877006,14.500782240395077,0
smt_37943,31.776148378853946,216.3,14.690775949539503,14.500173492226407,0
smt_37944,31.7748105349395,216.3,14.690157436402911,14.499559906568876,0
smt_37945,31.77367358279055,216.3,14.689631799718239,14.499038457852096,0
smt_37873,31.772702977539012,216.3,14.689183068672682,14.498593302339414,0
smt_37874,31.771342083395805,216.3,14.688553898934723,14.497969146299264,0
smt_37875,31.76987696044252,216.3,14.687876542044624,14.497297187683072,0
smt_37876,31.768369407096884,216.3,14.687179568699438,14.496605769578212,0
smt_37877,31.766868739949345,216.3,14.686485778987212,14.495917510352143,0
smt_37878,31.765375817328422,216.3,14.685795569731125,14.495232803663798,0
smt_37879,31.763936551924225,216.3,14.685130167325115,14.494572706646776,0
smt_37880,31.76240738920049,216.3,14.684423203513862,14.493871380235264,0
smt_37881,31.761021325274918,216.3,14.68378239726071,14.493235684400737,0
smt_37882,31.759547756614595,216.3,14.683101135744147,14.492559856528446,0
smt_37883,31.758096678637305,216.3,14.6824302721393,14.491894344191365,0
smt_37884,31.756596801873723,216.3,14.681736847838058,14.491206451774104,0
smt_37885,31.75514152550854,216.3,14.681064043230949,14.490539015111978,0
smt_37841,31.75404092420867,216.3,14.680555212301744,14.478166498647873,0
smt_37886,31.753691950417977,216.3,14.680393874441968,14.48987419385896,0
smt_37837,31.75319021658948,216.3,14.680161912431567,14.477777574526803,0
smt_37887,31.752257849568284,216.3,14.679730859717191,14.489216470155759,0
smt_37888,31.750770307149086,216.3,14.679043137840539,14.48853423701317,0
smt_37889,31.74980951442154,216.3,14.67859894332942,14.488093588005034,0
smt_37890,31.748806315264247,216.3,14.67813514344163,14.48763349036117,0
smt_37891,31.746811225913646,216.3,14.677212772035897,14.48671848254088,0
smt_37892,31.745335718603865,216.3,14.676530614241267,14.486041771336309,0
smt_37893,31.74394892491348,216.3,14.675889470602623,14.4854057473665,0
smt_37894,31.742511930488845,216.3,14.675225118117819,14.484746700418727,0
smt_37895,31.741136053059723,216.3,14.67458902129437,14.484115684029831,0
smt_37896,31.739682176284482,216.3,14.67391686374687,14.483448895487241,0
smt_37897,31.738205525844158,216.3,14.673234177459157,14.482771662940037,0
smt_37898,31.73682963803142,216.3,14.672598075835145,14.482140643376225,0
smt_37903,31.736495600345656,216.3,14.672443643248107,14.471660446736117,0
smt_37904,31.735430312563313,216.3,14.671951138494366,14.471172025895276,0
smt_37905,31.73402441359351,216.3,14.671301162086689,14.470527439670887,0
smt_37906,31.732623546540903,216.3,14.670653512039253,14.469885161131094,0
smt_40683,31.73111972853769,216.3,14.669958265620753,14.469195681651586,0
smt_37908,31.72966934369959,216.3,14.669287722468605,14.468530701078185,0
smt_37909,31.72810997132404,216.3,14.668566792105429,14.467815752028171,0
smt_37910,31.726619658342067,216.3,14.667877789339837,14.46713246634832,0
smt_37911,31.72510036135819,216.3,14.667175386665829,14.466435892324421,0
smt_40685,31.725011856135037,216.3,14.667134468855773,14.466395314396095,0
smt_37912,31.723602676430662,216.3,14.666482975696098,14.465749228373303,0
smt_37913,31.722110070790084,216.3,14.66579291298663,14.465064893520472,0
smt_37914,31.720569920048824,216.3,14.66508086918577,14.464358760674555,0
smt_37915,31.719107281673434,216.3,14.664404660967836,14.463688166603545,0
smt_37916,31.717990718824577,216.3,14.663888450681728,14.463176242502307,0
smt_37917,31.71648850776402,216.3,14.663193947186324,14.462487506175888,0
smt_37918,31.7149665724484,216.3,14.662490324756542,14.461789727326794,0
smt_37919,31.713490385207514,216.3,14.661807852615585,14.461112923762164,0
smt_37920,31.711948241317845,216.3,14.661094887340658,14.460405880977403,0
smt_37993,31.71037828187404,216.3,14.66036906235508,14.45968608601887,0
smt_37987,31.709731795392106,216.3,14.660070178174806,14.459389685150429,0
smt_37986,31.70843926390478,216.3,14.659472613918068,14.458797086150147,0
smt_37948,31.680272203756637,216.3,14.646450394709493,14.453885608141308,0
smt_37947,31.67852497844404,216.3,14.645642616016662,14.453084082683064,0
smt_37985,31.676825903377885,216.3,14.644857098186723,14.452304646758527,0
smt_37984,31.67496977913187,216.3,14.643998973246356,14.451453166949491,0
smt_37983,31.67308437692825,216.3,14.643127312495723,14.450588257297683,0
smt_37963,31.6711693427444,216.3,14.642241952262783,14.449709755481331,0
smt_37959,31.642570055316718,216.3,14.62901990537065,14.446316069422432,0
smt_37958,31.640659177563965,216.3,14.62813646674247,14.445438882371626,0
smt_37957,31.63871295318988,216.3,14.627236686634248,14.444545470723,0
smt_37956,31.636804912914336,216.3,14.626354559830945,14.443669588650465,0
smt_37962,31.635306556765975,216.3,14.625661838541829,14.436900740799254,0
smt_37955,31.63488770083456,216.3,14.625468192711308,14.442789497518694,0
smt_37960,31.633586069172686,216.3,14.624866421254131,14.436111342489331,0
smt_37954,31.633268124223743,216.3,14.624719428674867,14.442046036088087,0
smt_37953,31.629219169945973,216.3,14.622847512688844,14.441226656092399,0
smt_37952,31.627366205892276,216.3,14.621990848771278,14.440376021400636,0
smt_37951,31.625444451012587,216.3,14.62110238142052,14.439493808294706,0
smt_37981,31.623884588413926,216.3,14.620381224416978,14.438777728710974,0
smt_37980,31.612912041491384,216.3,14.61530838718973,14.43558150823629,0
smt_37979,31.611710609698576,216.3,14.614752940221255,14.435029968864635,0
smt_37978,31.6100758709923,216.3,14.613997166431947,14.434279512842421,0
smt_37977,31.6082301149279,216.3,14.613143834918121,14.43343218663645,0
smt_37976,31.606569004470426,216.3,14.612375868918365,14.432669626142529,0
smt_37975,31.60482530173047,216.3,14.611569718784315,14.431869151300402,0
smt_37990,31.60305899956913,216.3,14.61075312046654,14.431058302860153,0
smt_37974,31.601428430538736,216.3,14.609999274405332,14.43030976571883,0
smt_37991,31.59966712297727,216.3,14.609184985195222,14.429501212121666,0
smt_37973,31.598634850871814,216.3,14.608707744277305,14.429027333261963,0
smt_37989,31.593612494490262,216.3,14.606385804202619,14.425524405513208,0
smt_37969,31.590600970425342,216.3,14.60499351383511,14.426515899855309,0
smt_37972,31.589294971480516,216.3,14.604389723291963,14.423542269467925,0
smt_37968,31.589262767072945,216.3,14.60437483452286,14.425901458330292,0
smt_37971,31.587544494247705,216.3,14.60358044116861,14.422738642869128,0
smt_37967,31.587524896829862,216.3,14.603571380873722,14.425103508969919,0
smt_37970,31.586319243017243,216.3,14.603013981977458,14.422176142888167,0
smt_37966,31.5857562830486,216.3,14.602753713845862,14.42429144463828,0
smt_37996,31.58403342637862,216.3,14.601957201284613,14.423500390816095,0
smt_37995,31.58262561981545,216.3,14.601306342956748,14.42285399343794,0
smt_37994,31.58259688916635,216.3,14.601293060178616,14.422840799394315,0
smt_37965,31.58258323492191,216.3,14.601286747536712,14.4228345322051,0
smt_37964,31.57644867724829,216.3,14.598450613614558,14.420017842710124,0
rbt_609688,10.820676171083871,76.65,14.11699435235991,5.096929724433046,0
rbt_606139,9.296434073518581,76.65,12.128420187238852,4.306410857876711,0
smt_34714,33.59068320001652,286.65,11.71836148613868,11.3252935578087,0
smt_34721,33.590652164739566,286.65,11.718350659249806,11.325280302591551,0
smt_34712,33.59063273099224,286.65,11.71834387964146,11.32527200278441,0
smt_34720,33.59006311890854,286.65,11.718145166198688,11.325028723560393,0
smt_34711,33.58926922812627,286.65,11.717868211451691,11.32468965768304,0
smt_34719,33.5884086016956,286.65,11.717567975473782,11.324322091887622,0
smt_34710,33.587653713432644,286.65,11.717304627047845,11.323999688093238,0
smt_34718,33.58689631166017,286.65,11.71704040176528,11.323676212968266,0
smt_34709,33.586172080109556,286.65,11.716787748163112,11.323366906116362,0
smt_34708,33.58543143348168,286.65,11.716529368038264,11.323050590680397,0
smt_34707,33.58410173580933,286.65,11.716065493043548,11.322482708174837,0
smt_34706,33.583071215597336,286.65,11.715705988347231,11.322042601643384,0
smt_34717,33.5819650174019,286.65,11.715320082819431,11.321570179369578,0
smt_34705,33.58102539260823,286.65,11.71499228767076,11.32116889878296,0
smt_34716,33.58009725925591,286.65,11.714668501397492,11.320772528925625,0
smt_34704,33.57931827527409,286.65,11.714396746999508,11.320439857339432,0
smt_34703,33.57854342175176,286.65,11.714126433543264,11.320108951902279,0
smt_34702,33.57730351635826,286.65,11.713693883257724,11.319579447948788,0
smt_34715,33.57627198056776,286.65,11.713334024269235,11.319138932797374,0
smt_34701,33.57551883350014,286.65,11.713071283272333,11.318817305360673,0
smt_34700,33.57475836664779,286.65,11.712805988713692,11.318492554161367,0
smt_34713,33.57386899383539,286.65,11.712495724345157,11.318112757278643,0
rbt_1638954,7.154038117086549,61.95,11.548084127661904,5.427899345773533,0
rbt_623004,7.055099421315417,61.95,11.388376789855394,4.38142043883744,0
rbt_1607265,10.073476326925423,90.3,11.155566253516525,5.251055287032751,0
sbt_11363,17.624304269919378,163.8,10.759648516434297,3.9664295779793353,0
smt_24122,34.265806039152515,327.6,10.459647753099057,10.007959940387622,0
smt_18806,34.26578262262118,327.6,10.459640605195721,10.007950973954982,0
smt_10381,34.265616492406544,327.6,10.459589893896991,10.007887348992966,0
smt_18545,34.26510602653512,327.6,10.459434074033918,10.007691849901772,0
smt_23134,34.26409543897394,327.6,10.459125591872386,10.007304816696335,0
smt_4527,34.26314142955038,327.6,10.458834380204634,10.00693945565977,0
smt_4627,34.26207724052744,327.6,10.458509536180536,10.006531903276757,0
smt_4591,34.26142253367269,327.6,10.458309686713276,10.006281172651395,0
smt_4693,34.260603914997475,327.6,10.458059803112782,10.005967671886696,0
smt_4863,34.25983243897247,327.6,10.457824309820655,10.005672227647167,0
smt_4387,34.25898815246033,327.6,10.457566591105106,10.005348902841748,0
smt_31415,34.257981640910025,327.6,10.457259353147137,10.004963456963749,0
smt_31414,34.25710919522553,327.6,10.45699303883563,10.004629355470092,0
smt_31413,34.256578614105166,327.6,10.45683107878668,10.00442617190633,0
smt_31412,34.25636920946351,327.6,10.456767157955893,10.004345981753005,0
smt_31411,34.25609054540937,327.6,10.456682095668306,10.004239268845117,0
smt_31416,34.25603976385816,327.6,10.456666594584298,10.004219822156134,0
smt_31417,34.256002028281195,327.6,10.45665507578791,10.004205371850315,0
smt_31408,34.246413950146746,327.6,10.453728312010606,10.00404307443691,0
smt_31407,34.24551067508738,327.6,10.45345258702301,9.996233050260672,0
smt_6830,34.244420941991855,327.6,10.453119945662959,9.995815900134842,0
smt_6842,34.24264115559535,327.6,10.452576665322146,9.995134608649456,0
smt_7020,34.241161005478936,327.6,10.452124849047294,9.994568026685704,0
smt_22791,34.24018514185744,327.6,10.451826966378949,9.994194484219493,0
smt_7012,34.23891668344732,327.6,10.451439769062064,9.993708948148932,0
smt_6826,34.237829876715274,327.6,10.451108020975358,9.993292949669437,0
smt_17964,34.236616845957926,327.6,10.4507377429664,9.992828642310256,0
smt_17962,34.22328277950507,327.6,10.446667515111436,9.99210364035955,0
smt_29388,34.22226132505246,327.6,10.446355715827977,9.991712710182183,0
smt_17961,34.22104694544114,327.6,10.445985026080933,9.991247949723572,0
smt_19163,34.22005871705552,327.6,10.445683369064566,9.990869745333907,0
smt_29389,34.219201744343486,327.6,10.445421777882627,9.990541777161294,0
smt_17795,34.217856922597846,327.6,10.445011270634263,9.99002711286407,0
smt_22739,34.21629587981172,327.6,10.444534761847288,9.989429710452205,0
smt_29420,34.214896302327475,327.6,10.444107540393,9.98889410894497,0
smt_17794,34.21447177608521,327.6,10.443977953627964,9.988731649591747,0
smt_18202,34.21374528456127,327.6,10.443756191868518,9.988453634667637,0
smt_10747,34.212569352873906,327.6,10.443397238361998,9.988003632098874,0
smt_17776,34.211301891071656,327.6,10.443010345259967,9.9875186097522,0
smt_29390,34.209842058590624,327.6,10.442564730949517,9.986959981145338,0
smt_12228,33.675163816031294,327.6,10.279354034197585,9.930140152981547,0
smt_24626,33.6742827890643,327.6,10.279085100446977,9.92981026760261,0
smt_6431,33.67330980189953,327.6,10.278788095817927,9.92944595213653,0
smt_6957,33.672414817341334,327.6,10.278514901508343,9.929110845662365,0
smt_24627,33.671339248598656,327.6,10.278186583821324,9.928708126926178,0
smt_24628,33.67047490462758,327.6,10.27792274256031,9.92838449834262,0
smt_24629,33.66955084157354,327.6,10.277640672030994,9.928038512355792,0
smt_24630,33.66830604551685,327.6,10.277260697654715,9.92757244213795,0
smt_6627,33.66737226425459,327.6,10.276975660639373,9.927222823665927,0
smt_6447,33.66585870550107,327.6,10.276513646367848,9.926656135507903,0
smt_6527,33.64298547570958,327.6,10.269531585991935,9.924445447991749,0
smt_24631,33.64205603762015,327.6,10.269247874731425,9.924097743925119,0
smt_1873,33.64104825147891,327.6,10.268940247704183,9.923720732836932,0
smt_24632,33.64007810312894,327.6,10.26864410962422,9.923357804862615,0
smt_24633,33.63899528275515,327.6,10.268313578374586,9.92295273018319,0
smt_24634,33.63789495814737,327.6,10.26797770395219,9.922541110911611,0
smt_6535,33.63506882260433,327.6,10.267115025214997,9.921483905083718,0
smt_6544,33.63400447941348,327.6,10.266790134131098,9.921085762538961,0
smt_19172,33.632692416548885,327.6,10.266389626541173,9.92059495938769,0
smt_19173,33.63180462678927,327.6,10.266118628446051,9.920262866885997,0
smt_6686,33.63099094085651,327.6,10.2658702505667,9.919958496216081,0
smt_19174,33.62858251198605,327.6,10.265135076918819,9.919057600927887,0
smt_24636,33.62714998305365,327.6,10.264697797024922,9.918521758277663,0
smt_24637,33.62593548141451,327.6,10.264327070028848,9.918067474249094,0
smt_24635,33.62460136329253,327.6,10.263919830064873,9.917568452738545,0
smt_24665,33.62323690328935,327.6,10.263503328232403,9.91705808741844,0
smt_6737,33.62191804400798,327.6,10.26310074603418,9.916564783881412,0
smt_22843,33.620641242728134,327.6,10.262711002053763,9.91608721656271,0
smt_19223,33.619661300925955,327.6,10.262411874519522,9.915720688089602,0
smt_6510,33.61853766712975,327.6,10.26206888496024,9.915300417822907,0
smt_24666,33.6035752823629,327.6,10.257501612442885,9.914450008865389,0
smt_6687,33.60260076606107,327.6,10.257204141044284,9.914085787044327,0
smt_22844,33.60179044694342,327.6,10.256956790886267,9.913782935444656,0
smt_19220,33.6007094792954,327.6,10.256626825181746,9.913378933567829,0
smt_6683,33.59972561783596,327.6,10.256326501170927,9.913011227170598,0
smt_24667,33.59831074990365,327.6,10.255894612302702,9.912482442190731,0
smt_6502,33.59656674439396,327.6,10.25536225408851,9.911830655071265,0
smt_19218,33.595918020179305,327.6,10.255164230823963,9.911588209495475,0
smt_29393,33.59467652393636,327.6,10.254785263716835,9.91112423273953,0
smt_24668,33.59110789746173,327.6,10.253695939396131,9.90979057663101,0
smt_6394,33.57349351378883,327.6,10.248319143403183,9.903208361814121,0
smt_24450,33.57246494370623,327.6,10.248005172071498,9.902824031491209,0
smt_24451,33.571377875444725,327.6,10.247673344152846,9.902417846421178,0
smt_24452,33.5703841068506,327.6,10.24736999598614,9.902046525967716,0
smt_24453,33.56933195925563,327.6,10.247048827611607,9.90165339538828,0
smt_6993,33.56813132039853,327.6,10.246682332233982,9.901204785672538,0
smt_17113,33.56657986296381,327.6,10.246208749378452,9.900625101501308,0
smt_19165,33.56402239236909,327.6,10.245428080698744,9.899669547424102,0
smt_24454,33.56285645064439,327.6,10.245072176631375,9.899233920101004,0
smt_24455,33.56174119594552,327.6,10.244731744794116,9.898817234535969,0
smt_24456,33.56073103275075,327.6,10.244423392170559,9.898439816739165,0
smt_24457,33.559677978499586,327.6,10.244101947038944,9.8980463771546,0
smt_24458,33.55865208681316,327.6,10.24378879328851,9.897663089082341,0
smt_24459,33.55753629078194,327.6,10.243448196209384,9.897246214926373,0
smt_24505,33.55642729317062,327.6,10.243109674350006,9.896831884335501,0
smt_24506,33.55550647893318,327.6,10.24282859552295,9.89648786334474,0
smt_24507,33.55443319044087,327.6,10.242500973883049,9.896086880281514,0
smt_29445,33.55339299737317,327.6,10.242183454631615,9.895698264893976,0
smt_6650,33.5523491285495,327.6,10.241864813354548,9.895308279463414,0
smt_6653,33.55133429339073,327.6,10.241555034612555,9.894929144018478,0
smt_6140,33.55029961531341,327.6,10.241239198813618,9.894542598392254,0
smt_6420,33.54924940967602,327.6,10.240918623222228,9.894150255081675,0
smt_6426,33.54814823637084,327.6,10.240582489734688,9.893738874381485,0
smt_24508,33.54712907051493,327.6,10.24027138904607,9.893358133464943,0
smt_24509,33.54612932404505,327.6,10.239966216130966,9.892984650207126,0
smt_24510,33.5450201880192,327.6,10.239627652020513,9.892570304889878,0
smt_6389,33.54375469359,327.6,10.239241359459706,9.89209755196203,0
smt_32671,33.5437141372855,327.6,10.239228979635378,9.892082401424268,0
smt_29446,33.542527676172696,327.6,10.238866812018527,9.891639178131657,0
smt_24511,33.54141410534209,327.6,10.238526894182568,9.891223188080437,0
sbt_9361,21.61480629944338,216.3,9.992975635433831,4.710535028970238,0
rbt_606121,5.811555237495296,61.95,9.381041545593698,4.4078858832797545,0
rbt_635543,5.810735370577842,61.95,9.3797181123129,3.6495954392331504,0
smt_37926,31.795702897161423,346.5,9.17624903236982,9.057221968130824,0
smt_37927,31.79490764833457,346.5,9.176019523328879,9.056994284900261,0
smt_37928,31.794103670031017,346.5,9.175787494958447,9.056764102491854,0
smt_37929,31.79329403985898,346.5,9.175553835457137,9.056532302009883,0
smt_37930,31.79249312418765,346.5,9.175322690963247,9.056302996559822,0
smt_37931,31.791759243693527,346.5,9.175110892840845,9.056092883735756,0
rbt_1605991,5.568097143287822,61.95,8.988050271651044,4.2260637413416005,0
rbt_1607280,5.522160878591731,61.95,8.913899723311914,4.189641674672854,0
sbt_34393,11.098725038761549,128.1,8.664110100516432,5.696197475185255,0
rbt_606114,7.538987787825223,90.3,8.34882368529925,3.9243702906385427,0
rbt_627337,7.341518401122005,90.3,8.13014219393356,3.8232445468521856,0
rbt_1621994,7.192741895729201,90.3,7.965384159168551,3.743148932783584,0
rbt_626678,7.065659005350882,90.3,7.824650061296658,3.6809612389524755,0
rbt_606150,4.782100649496278,61.95,7.719290798218366,3.626388642370087,0
rbt_1607272,6.8846675654687335,90.3,7.624216573055076,3.5870829235054527,0
rbt_623007,4.708942962803566,61.95,7.601199294275328,3.571492325863728,0
sbt_22748,16.31919467778184,216.3,7.544703965687397,3.550667568770073,0
sbt_7427,16.319186117140518,216.3,7.544700007924418,3.5506634927374665,0
sbt_34383,9.645307898560578,128.1,7.529514362654628,4.4358671386004325,0
sbt_34392,9.645304666256079,128.1,7.529511839388041,4.720942998246419,0
sbt_34384,9.632857056454396,128.1,7.519794735717718,3.6326874435147816,0
rbt_1630759,5.705813637332492,76.65,7.4439838712752655,3.501981993253891,0
rbt_606122,4.60177970898988,61.95,7.428215833720548,3.491571420039459,0
rbt_1229546,6.687814330735972,90.3,7.406217420527102,3.483321910068778,0
rbt_1638606,4.551456522693559,61.95,7.346983894582015,3.454207522602964,0
rbt_605905,6.519535394685057,90.3,7.219862009618004,3.3940113585917318,0
rbt_1607283,6.465235119192043,90.3,7.159728814166161,3.368757509692625,0
rbt_605822,6.202761627780923,90.3,6.869060495881421,3.234262114503622,0
rbt_1107340,6.195590408467911,90.3,6.861118946254609,3.2298639309259918,0
rbt_1607287,6.1844740141282,90.3,6.84880843203566,3.2220107228408845,0
rbt_1626486,6.172420562502718,90.3,6.835460202107107,3.212038932452874,0
rbt_606132,4.128484427048852,61.95,6.664220221224943,3.131287577861281,0
rbt_623433,5.980706229238413,90.3,6.623151970363692,3.116405227446487,0
rbt_626698,5.938691773306757,90.3,6.576624333673042,3.0910725093144866,0
rbt_1607252,5.0089773629653,76.65,6.534869358076061,3.073454340772189,0
rbt_637356,3.9148661623954846,61.95,6.319396549468094,2.970709801983096,0
rbt_631391,5.628549783158109,90.3,6.2331669802415375,4.7207353487020205,0
sbt_28279,13.42626895887289,216.3,6.207244086395233,2.784186829387053,0
sbt_20214,13.426261493011907,216.3,6.207240634772033,2.7841869022434653,0
rbt_605855,4.660928811499738,76.65,6.080794274624576,2.8612886137487368,0
rbt_1607255,5.426644222161438,90.3,6.009572782017097,2.8251202862948226,0
rbt_636933,4.512736036691833,76.65,5.887457321189606,2.770331626760827,0
rbt_605910,3.5448434848841055,61.95,5.722104091822607,2.6880803266557822,0
rbt_627343,5.132779897182997,90.3,5.68414163586157,2.6709955758855806,0
rbt_1607304,3.456248035277452,61.95,5.579092873732772,2.6205996746639277,0
rbt_1607305,4.88304957730571,90.3,5.407585356927696,2.5426661426110457,0
rbt_1607285,3.314834246258544,61.95,5.350822027858828,2.512895661735142,0
rbt_3405846,4.022218630543534,76.65,5.247512890467755,2.4681360974200026,0
rbt_606103,4.021196404404151,76.65,5.246179262105872,2.466088123643549,0
rbt_605825,4.670472158871063,90.3,5.17217293341203,2.4326896312281683,0
rbt_606109,3.1923236663123977,61.95,5.153064836662466,2.42097241275492,0
sbt_4580,8.399779083389936,163.8,5.128070258479814,2.41406530240191,0
rbt_1631852,4.610059069595505,90.3,5.10527028748118,2.399777301014191,0
rbt_605993,4.578200747551933,90.3,5.069989753656626,2.3827461738487767,0
rbt_630753,4.561299680118301,90.3,5.051273178425583,2.3761365659205422,0
rbt_621999,4.546515291270919,90.3,5.034900654785071,2.3667119919547925,0
sbt_6049,8.228014116976082,163.8,5.023207641621539,2.364652493990196,0
rbt_607384,3.0066491543914444,61.95,4.853348110397811,2.2804102130254917,0
rbt_1607278,3.7091889723460874,76.65,4.83912455622451,2.2737279846407445,0
rbt_1628760,4.357942394207053,90.3,4.826071311414234,2.2675505192268988,0
rbt_3433894,4.352791265405338,90.3,4.8203668498397985,2.266687544155681,0
rbt_1607357,3.6629009419207494,76.65,4.778735736361055,2.246104116522899,0
smt_6110,15.474281445008552,327.6,4.723529134617995,2.7300528931592694,0
smt_6802,14.990550010746666,327.6,4.575869966650386,2.7373060783235843,0
smt_24514,14.99000260455208,327.6,4.5757028707423935,2.737185188435017,0
smt_24513,14.989434152122792,327.6,4.575529350464833,2.7370597417552003,0
smt_19166,14.988988130722433,327.6,4.575393202296225,2.73696137830618,0
smt_6414,14.988552776508978,327.6,4.575260310289676,2.7368654225256024,0
smt_18852,14.988112189753144,327.6,4.575125821047968,2.7367683689752096,0
smt_6403,14.987623357645452,327.6,4.574976604897879,2.736660753240562,0
smt_1832,14.987198432121497,327.6,4.574846896251983,2.7365672623491624,0
smt_1831,14.986784478664667,327.6,4.574720536832926,2.736476235581921,0
smt_1829,14.985971839417747,327.6,4.574472478454745,2.7362976831255703,0
smt_1828,14.985383644133803,327.6,4.5742929316647745,2.7361685642540228,0
sbt_25907,9.891039951881803,216.3,4.572834004568564,1.7029441728047352,0
sbt_21361,9.891032988228702,216.3,4.572830785126538,1.702944362381902,0
sbt_20771,9.891027428547417,216.3,4.572828214769957,1.7029467712390172,0
smt_24515,14.903775281718074,327.6,4.549381954126396,2.689247854483463,0
smt_6552,14.903389586627386,327.6,4.54926422058223,2.689162116650451,0
smt_6549,14.902880007191527,327.6,4.549108671303884,2.689048906325461,0
smt_23959,14.902435068355782,327.6,4.548972853588456,2.688950118609133,0
smt_22744,14.901901329271137,327.6,4.548809929569944,2.6888316909375223,0
smt_19175,14.901457451198386,327.6,4.548674435652742,2.688733265138159,0
smt_19177,14.900952063715927,327.6,4.548520165969452,2.688621270103898,0
smt_19176,14.90042095252644,327.6,4.54835804411674,2.688503654855675,0
smt_19164,14.900189714327373,327.6,4.548287458585889,2.6884524726101238,0
smt_32311,14.899791838445577,327.6,4.548166006851519,2.6883644433166545,0
smt_39119,14.899314631099,327.6,4.548020339163308,2.6882589233800203,0
smt_32312,14.89929222983899,327.6,4.5480135011718525,2.688253971386237,0
smt_32310,14.899273959645289,327.6,4.5480079241896485,2.688249932618982,0
smt_32309,14.89883241109917,327.6,4.547873141361163,2.6881523618170378,0
smt_32314,14.898630550547981,327.6,4.547811523366295,2.6881077743015616,0
smt_32313,14.898615219989864,327.6,4.5478068437087495,2.688104388755894,0
smt_6350,14.814657517487268,327.6,4.522178729391717,2.674503288088171,0
smt_24517,14.812488382086334,327.6,4.521516600148454,2.674252533055696,0
smt_24520,14.81182370922949,327.6,4.5213137085560104,2.6741046822470516,0
smt_19116,14.81150987856279,327.6,4.521217911649203,2.6740349181059813,0
rbt_605806,3.998551594691654,90.3,4.428074855693969,2.0810151017713157,0
rbt_622714,3.9351443311901506,90.3,4.357856402203932,2.0491597823442493,0
rbt_1607258,3.294265348627534,76.65,4.297802150851316,2.0213231853648552,0
rbt_627328,3.8433169190988403,90.3,4.2561649159455595,2.003396774295086,0
sbt_5830,6.8969032273266615,163.8,4.210563630846558,1.9810068701986365,0
rbt_605815,3.769427124846233,90.3,4.174337901269362,1.9636236370360287,0
rbt_621168,3.1971775951802353,76.65,4.171138415107939,1.9606118960349022,0
rbt_1107330,3.7604685155089643,90.3,4.164416960696528,1.9606951826321468,0
rbt_3422597,3.7484844972920293,90.3,4.151145622693277,1.952825919328624,0
rbt_621171,2.5667426897058214,61.95,4.143248893794707,1.9466135646913825,0
rbt_606127,2.5477609570584865,61.95,4.1126084859701155,1.932252570639956,0
rbt_1124041,3.6973178150195514,90.3,4.094482630143468,1.9262142525334867,0
rbt_635966,2.5336449386025732,61.95,4.089822338341522,1.9217783965674222,0
rbt_605921,3.049357588701086,76.65,3.9782877869551023,1.8704058641051249,0
sbt_14007,6.465234820042376,163.8,3.947029804665675,1.8571353605893357,0
rbt_627336,3.5248133053528687,90.3,3.903447735717463,1.83414155013166,0
rbt_1627321,3.507094848402888,90.3,3.8838259672235744,1.8255167045226328,0
rbt_1607355,3.501775287521769,90.3,3.8779349806442625,1.8228687078196912,0
rbt_605902,2.398509328394331,61.95,3.8716857601199854,1.8194297635559342,0
sbt_35173,4.8830491574175285,128.1,3.811904104151077,1.7923708777486862,0
rbt_1607358,2.9160263221736757,76.65,3.8043396244927274,1.788497117650225,0
sbt_21952,8.228013159061486,216.3,3.8039820430242655,1.7907071892417603,0
sbt_20840,6.202761582408686,163.8,3.7867897328502353,1.7829905861921371,0
sbt_6273,6.18447369331248,163.8,3.775624965392234,1.7762364777018582,0
sbt_4118,10.820683960745116,286.65,3.774876665182319,1.362915716076322,0
rbt_3405838,3.364757269060507,90.3,3.7261985260913706,1.7541757785643657,0
rbt_1107341,2.293303502684009,61.95,3.701861989804695,1.7420257284013123,0
rbt_622273,2.134393762509043,57.75,3.695919935080594,1.7397858495630814,0
rbt_638617,2.2870327423204695,61.95,3.6917396970467626,1.7372395544622163,0
rbt_605828,3.324691903091847,90.3,3.681829350046342,1.7335001475477911,0
rbt_1607292,3.257103740624923,90.3,3.606980886627822,1.6961842601378416,0
smt_6536,10.336653169963306,286.65,3.6060188975975254,2.14744924856866,0
smt_6703,10.336079305030001,286.65,3.6058187005163096,2.147328913450871,0
smt_6514,10.33551657346153,286.65,3.605622387392825,2.147211106165853,0
smt_6984,10.335430677007654,286.65,3.605592421771378,2.147193140645228,0
smt_5854,10.334556743517794,286.65,3.6052875435261797,2.1470106089663177,0
smt_5855,10.33390198949839,286.65,3.605059127681281,2.1468741591608604,0
smt_5657,10.333365350006405,286.65,3.604871916974152,2.1467625185522348,0
smt_21743,10.332799604746057,286.65,3.604674552501677,2.146645012737307,0
smt_22741,10.332219929787634,286.65,3.604472328549672,2.1465248161203516,0
smt_6098,10.33175940272763,286.65,3.6043116702346527,2.1464294713019965,0
smt_19120,10.33122536021022,286.65,3.60412536550156,2.1463190828629424,0
smt_22740,10.33069679578352,286.65,3.6039409718414515,2.1462100059936353,0
smt_22738,10.317908535487456,286.65,3.5994796914311724,2.1411075848228776,0
smt_6754,10.31742633300983,286.65,3.5993114714843295,2.1410065664398816,0
smt_6567,10.316936156752005,286.65,3.5991404698245266,2.1409040215705937,0
smt_6746,10.316448889763826,286.65,3.598970483085236,2.1408022294383082,0
smt_6812,10.315970036882751,286.65,3.598803431670243,2.1407023351972745,0
rbt_1635060,2.204521619456591,61.95,3.5585498296313007,1.673288502164926,0
rbt_1626490,3.2115417928941192,90.3,3.5565246875903873,2.6935815710567987,0
rbt_605867,3.2102711889504434,90.3,3.555117595736925,1.6721391176166287,0
sbt_37156,5.81155501984014,163.8,3.5479578875702926,1.6670849114977353,0
sbt_4615,5.74925059565535,163.8,3.5099209985685893,1.653424142744247,0
sbt_3373,5.74924929325624,163.8,3.509920203453137,1.6534232892740477,0
sbt_20793,5.749248100316075,163.8,3.5099194751624387,1.6534225130540563,0
sbt_4010,5.749246255554205,163.8,3.5099183489341907,1.6534213226608594,0
sbt_28804,5.749244584887471,163.8,3.50991732899113,1.653420254573626,0
rbt_605812,3.1230863031238316,90.3,3.4585673345778867,1.6278839523315662,0
rbt_632613,3.118546322712821,90.3,3.4535396707783184,1.624385731339799,0
rbt_622713,3.1034419229741816,90.3,3.4368127607687504,1.6150127282951416,0
rbt_606120,2.1190263360024217,61.95,3.4205429152581464,1.60675911315895,0
sbt_26269,7.341518024396497,216.3,3.394136858250808,1.5961116222855818,0
rbt_1132019,3.0306113962320995,90.3,3.3561587998140636,1.5783345215324438,0
rbt_605863,3.0193985960313374,90.3,3.3437415238442276,1.5731132482090258,0
rbt_634166,2.527139696933511,76.65,3.296985905979792,1.5493508834503673,0
rbt_1138614,2.034818529700907,61.95,3.2846142529473883,1.544689171703026,0
sbt_37537,7.055131619195221,216.3,3.261734451777726,1.2548739755415361,0
sbt_37545,7.055122675676723,216.3,3.261730317002646,1.254874705465906,0
sbt_37546,7.05510538388466,216.3,3.2617223226466296,1.254873509907249,0
sbt_37539,7.04802559772369,216.3,3.2584491898861256,1.7229389632746521,0
sbt_37538,7.048019879198306,216.3,3.2584465460926055,1.7229395620880699,0
rbt_605803,2.921676801811987,90.3,3.2355224826267857,1.5210360510032672,0
rbt_605834,2.9076219335220217,90.3,3.2199578444319177,1.5168427440361725,0
smt_29484,5.2477801757874065,163.8,3.2037730010912124,1.5877287622311578,0
smt_22951,5.247766418901735,163.8,3.203764602504112,1.5877203279386967,0
smt_19381,5.246403507792323,163.8,3.202932544439757,1.5868859926608152,0
smt_18804,5.2456940372434575,163.8,3.202499412236543,1.5864526935225423,0
smt_19380,5.244881062664084,163.8,3.2020030907595136,1.5859570431443568,0
smt_5349,5.244229751447278,163.8,3.2016054648640284,1.585560622270152,0
rbt_605904,1.9833493479096218,61.95,3.201532442146282,1.5034014231060162,0
smt_18803,5.243568263827726,163.8,3.2012016262684524,1.585158617895272,0
smt_13454,5.242892869823471,163.8,3.200789297816527,1.5847487993135967,0
smt_19377,5.242090082630984,163.8,3.200299195745411,1.5842625215296353,0
smt_29411,5.241080915186932,163.8,3.19968309840472,1.5836525340433187,0
smt_8954,5.240460928961398,163.8,3.1993045964355296,1.5832785086631311,0
smt_5584,5.239738260022579,163.8,3.198863406607191,1.582843234567502,0
rbt_605864,2.8868299264168273,90.3,3.196932365910108,1.504061500258997,0
rbt_605810,2.447836744276087,76.65,3.1935247805297937,1.5010174960812914,0
rbt_609682,2.4341452883457237,76.65,3.175662476641518,1.4946183242572264,0
smt_7052,5.163563524621239,163.8,3.1523586841399505,1.725128079863411,0
rbt_605835,2.8416295545655665,90.3,3.146876583129088,1.4823927692388645,0
rbt_622703,1.9457354870553742,61.95,3.1408159597342604,2.3793201205857457,0
sbt_14006,5.140419971696309,163.8,3.138229530950127,1.4758748049993795,0
sbt_27416,6.687814197858679,216.3,3.0919159490793704,1.4542022876986274,0
sbt_15213,6.687814151668068,216.3,3.0919159277244876,1.4542022777302346,0
rbt_606128,2.354424626392773,76.65,3.0716563945111193,1.443569135733295,0
rbt_607385,2.754258759415872,90.3,3.05012044232101,1.4350419640696657,0
rbt_1607257,2.7520423078419105,90.3,3.0476659001571544,1.4326997982252847,0
rbt_3405845,2.7444899301091774,90.3,3.0393022481829206,1.4312368861199454,0
rbt_633056,2.7308367541811736,90.3,3.024182452027878,1.4218813269460602,0
rbt_606141,2.7272686147672394,90.3,3.02023102410547,1.4218021327295387,0
rbt_623015,2.7216531492919684,90.3,3.0140123469457016,2.2829753794084295,0
sbt_34389,3.8433156271902433,128.1,3.0002463912492146,2.308942131581524,0
rbt_1606000,2.669267789753278,90.3,2.9559997671686356,1.3899179190224233,0
rbt_605982,2.6661843008435624,90.3,2.952585050768065,1.3892515570639723,0
sbt_3952,4.81144995606234,163.8,2.9373931355691942,1.3830068254802892,0
sbt_4120,4.811448424186951,163.8,2.9373922003583335,1.3830058404311119,0
sbt_20855,4.811446933936607,163.8,2.937391290559589,1.3830048884395418,0
sbt_20854,4.811445521290438,163.8,2.9373904281382406,1.383003991555501,0
rbt_1629639,2.6505237894542053,90.3,2.9352422917543803,1.3790728681405267,0
rbt_635963,1.8126708417797708,61.95,2.9260223434701707,1.3744403372252654,0
smt_25186,4.75436768270729,163.8,2.9025443728371734,1.5969547904111339,0
rbt_626481,2.618108819377031,90.3,2.8993453149247297,1.3630741007086276,0
rbt_1607306,2.2035799898759727,76.65,2.8748597389119017,1.3519657346012088,0
rbt_605820,2.197109757903408,76.65,2.866418470845933,1.3486485252675842,0
rbt_3405847,2.5849769777912273,90.3,2.862654460455401,1.348008164137054,0
rbt_605901,2.58176929039042,90.3,2.859102204197586,1.3434758138118157,0
rbt_1607289,2.1777176002536214,76.65,2.8411188522552138,1.3352190518653326,0
sbt_34000,6.125350442097173,216.3,2.8318772270444628,1.331012943928737,0
sbt_20828,4.601778418338672,163.8,2.8093885337842925,1.320529416234226,0
rbt_1609690,2.4971888235543593,90.3,2.7654361279671753,1.299384855672935,0
rbt_1625170,2.482044040694365,90.3,2.7486644968929843,1.291674324542426,0
sbt_34382,3.5198696616053327,128.1,2.7477514922758255,1.291308661685744,0
rbt_605821,3.519708974488504,128.1,2.7476260534648747,1.2913270339802931,0
sbt_35105,3.5017749090031316,128.1,2.7336260023443653,1.284972719498067,0
rbt_605988,2.4473338892582897,90.3,2.7102257909837095,1.2756387480683564,0
smt_6512,7.704459748113522,286.65,2.687758502743249,1.6186226118277114,0
smt_6425,7.704082835975959,286.65,2.6876270141203418,1.618559574042229,0
smt_6930,7.703505540514028,286.65,2.6874256202735145,1.6184581300569463,0
rbt_605804,1.6593457003524967,61.95,2.678524132933812,1.258834845386563,0
sbt_6048,4.3469076402049405,163.8,2.653789768134884,1.2493522778875519,0
rbt_605829,2.393971641706998,90.3,2.651131386165003,1.2465971997160326,0
smt_22686,7.563573370123136,286.65,2.6386092343007626,1.6592569918950169,0
smt_6239,7.56312858834082,286.65,2.638454068843824,1.659177251008428,0
smt_23961,7.5626945047675855,286.65,2.6383026355372707,1.6590998319628631,0
smt_29407,7.562253006270678,286.65,2.6381486154790434,1.6590205799370425,0
smt_6278,7.561857640209213,286.65,2.638010689066532,1.6589511554387497,0
sbt_15045,5.705810838344299,216.3,2.637915320547526,1.240992288356769,0
smt_6630,7.561396739443229,286.65,2.6378499003813816,1.6588694477230843,0
smt_19070,7.560933720474146,286.65,2.6376883727452105,1.6587875352217953,0
smt_6639,7.560471053029006,286.65,2.637526967740801,1.658705467688165,0
smt_19117,7.5600392483035685,286.65,2.6373763294273744,1.6586290565685597,0
smt_21514,7.542992304449159,286.65,2.631429375352925,1.65354293444709,0
smt_5615,7.54254418811836,286.65,2.6312730466137664,1.6534595095755489,0
smt_18742,7.5421952507822905,286.65,2.6311513172099392,1.653397478682548,0
smt_6270,7.541647314084017,286.65,2.6309601653877612,1.6532958639342636,0
smt_5967,7.541221211478144,286.65,2.6308115163014634,1.653218825954534,0
smt_5772,7.540718642016658,286.65,2.630636191179717,1.6531271711846778,0
smt_6158,7.54022167726146,286.65,2.630462821301748,1.6530360862710671,0
smt_6263,7.539791355507289,286.65,2.6303127003339575,1.6529592041279608,0
smt_6384,7.53925777752468,286.65,2.6301265576573107,1.6528625518176214,0
smt_22684,7.538735785807655,286.65,2.6299444569362134,1.652767248192508,0
smt_22685,7.538309952115959,286.65,2.6297959016626407,1.652690846252903,0
smt_29447,7.5378635640109035,286.65,2.62964017582798,1.6526110733025285,0
smt_19065,7.537385432451235,286.65,2.629473376051364,1.6525262006263146,0
smt_24385,7.536845272812307,286.65,2.6292849373146026,1.6524295380107745,0
rbt_1107342,1.6227325578117189,61.95,2.6194230150310234,1.2318686293952612,0
rbt_1607316,2.3641924707197495,90.3,2.618153345204595,1.984250110579049,0
smt_29448,7.499636299429276,286.65,2.6163043081909216,1.6408900348764952,0
smt_6824,7.499202937950423,286.65,2.616153126792403,1.6408071471471715,0
smt_6855,7.498738335855886,286.65,2.6159910468710574,1.6407188442273501,0
smt_19062,7.498195867595948,286.65,2.6158018027545604,1.6406143711532752,0
smt_7054,7.497764764266006,286.65,2.6156514091282075,1.640532323098565,0
smt_6446,7.497324362066624,286.65,2.6154977715215857,1.6404486972307941,0
smt_39006,7.496873216475319,286.65,2.615340386002205,1.6403627296349856,0
smt_39008,7.496465617357476,286.65,2.6151981919963285,1.6402821171347222,0
smt_39007,7.496448439665204,286.65,2.615192199429689,1.6402821880996985,0
smt_6122,7.49605733351918,286.65,2.6150557591205934,1.6402092400656068,0
smt_18741,7.495563861570188,286.65,2.614883607734236,1.6401158987007154,0
smt_5938,7.495106752037553,286.65,2.6147241416492424,1.6400306282985821,0
smt_5946,7.494579003392564,286.65,2.6145400325806962,1.639931215014097,0
rbt_3405987,1.596754852941026,61.95,2.5774896738353927,1.2139712695959854,0
sbt_22669,5.568096611411893,216.3,2.5742471620027243,1.2103772211960357,0
rbt_1132012,2.3174614682179344,90.3,2.566402511869252,1.2063297467543355,0
rbt_605823,2.3096746969233184,90.3,2.5577792878442063,1.2031734474799503,0
rbt_1607268,1.9576699444931123,76.65,2.5540377618957755,1.2002251730096538,0
sbt_35588,5.522157346422972,216.3,2.553008481933875,1.1999442603199066,0
sbt_21281,4.128483010992138,163.8,2.520441398652099,1.184268147580572,0
rbt_1121173,2.2493678825625993,90.3,2.4909943328489472,1.1719875647084246,0
rbt_605989,2.247193709023432,90.3,2.4885866102142105,1.1696277071635952,0
rbt_605807,2.238152668552899,90.3,2.4785743837795122,1.1661894906963688,0
rbt_606130,1.88471721350192,76.65,2.4588613352927853,1.1553983043370777,0
sbt_3491,4.021193085048393,163.8,2.454940833362877,1.154000708239698,0
rbt_637399,1.5124600619279196,61.95,2.441420600367909,1.1472989963043232,0
sbt_21191,3.9865561302052415,163.8,2.4337949512852513,1.1442499742095251,0
sbt_26310,3.935143915836782,163.8,2.402407763026118,1.1296647491092178,0
rbt_1105833,2.158261176055951,90.3,2.3901009701616296,1.1236850195761576,0
rbt_637705,2.158174067725569,90.3,2.3900045046794784,1.8105008950050765,0
smt_29426,5.164300620410366,216.3,2.387563855945615,1.3067379518691526,0
rbt_1607276,2.1393733735370044,90.3,2.369184245334446,1.1132102871819358,0
rbt_622709,2.1151990459086747,90.3,2.342413118392774,1.101530685072302,0
rbt_1607319,2.114061202112923,90.3,2.3411530477441005,1.6631114185630198,0
...